10
	Energy:     -27.7186048
C         -5.38030        0.75095       -0.62745
O         -4.11715        0.47925       -0.07535
C         -5.96510        1.81286        0.24554
C         -4.14383        0.92933        1.20804
O         -5.26110        1.66866        1.46649
O         -3.25366        0.73399        2.01967
F         -6.11644       -0.38471       -0.54467
H         -5.30618        1.04629       -1.67741
H         -7.03616        1.67322        0.41504
H         -5.78366        2.81947       -0.14334
