8
	Energy:      -0.1551394
P         -2.15244        0.16558       -0.42633
F         -0.67944       -0.56921        0.06515
F         -2.51200        0.54046        1.21122
F         -1.79275       -0.20930       -2.06391
F         -1.34544        1.67280       -0.59448
F         -3.62563        0.90005       -0.91797
F         -2.95980       -1.34160       -0.25857
Li         0.26898        1.49268        1.48805
